data/d_npcc140_zip.m
% Modified NPCC 140-bus system, replaced syncornous generators with PV buses, and added ZIP load model

% Original NPCC 140-bus system can be found at
% https://github.com/cuihantao/andes

%bus data: 140
Bus.con = [...
   1     1.0000     1.0111     0.0866    1    1
   2     1.0000     1.0067     0.0727    1    1
   3     1.0000     1.0470     0.0719    1    1
   4     1.0000     1.0076     0.0735    1    1
   5     1.0000     1.0038     0.0427    1    1
   6     1.0000     1.0070     0.0338    1    1
   7     1.0000     1.0233     0.0580    1    1
   8     1.0000     1.0226     0.0361    1    1
   9     1.0000     1.0182     0.0201    1    1
  10     1.0000     1.0420     0.1391    1    1
  11     1.0000     0.9841     0.1133    1    1
  12     1.0000     1.0251     0.1047    1    1
  13     1.0000     1.0458     0.1872    1    1
  14     1.0000     1.0400     0.1821    1    1
  15     1.0000     1.0292     0.0611    1    1
  16     1.0000     1.0394     0.0796    1    1
  17     1.0000     1.0398     0.0585    1    1
  18     1.0000     1.0260     0.0276    1    1
  19     1.0000     1.0408     0.1143    1    1
  20     1.0000     1.0416     0.1610    1    1
  21     1.0000     0.9800     0.2274    1    1
  22     1.0000     0.9900     0.2315    1    1
  23     1.0000     1.0066     0.2041    1    1
  24     1.0000     1.0500     0.2808    1    1
  25     1.0000     1.0600     0.3203    1    1
  26     1.0000     1.0200     0.2815    1    1
  27     1.0000     1.0200     0.2007    1    1
  28     1.0000     1.0507     0.0583    1    1
  29     1.0000     1.0251     0.0583    1    1
  30     1.0000     1.0147     0.0142    1    1
  31     1.0000     0.9947     0.0084    1    1
  32     1.0000     0.9992     0.0338    1    1
  33     1.0000     1.0019     0.0461    1    1
  34     1.0000     0.9918     0.0101    1    1
  35     1.0000     0.9911     0.0026    1    1
  36     1.0000     0.9800     0.1952    1    1
  37     1.0000     1.0360     0.0837    1    1
  38     1.0000     1.0355     0.1252    1    1
  39     1.0000     1.0349     0.0595    1    1
  40     1.0000     1.0018     0.0122    1    1
  41     1.0000     1.0347    -0.0548    1    1
  42     1.0000     1.0400    -0.0392    1    1
  43     1.0000     1.0438     0.1508    1    1
  44     1.0000     1.0401     0.1198    1    1
  45     1.0000     1.0379     0.0740    1    1
  46     1.0000     1.0433     0.1160    1    1
  47     1.0000     1.0300     0.2126    1    1
  48     1.0000     1.0500     0.2714    1    1
  49     1.0000     0.9435    -0.0164    1    1
  50     1.0000     1.0500     0.2364    1    1
  51     1.0000     1.0400     0.1540    1    1
  52     1.0000     1.0405     0.3465    1    1
  53     1.0000     1.0300     0.3218    1    1
  54     1.0000     1.0408     0.4802    1    1
  55     1.0000     1.0400     0.4679    1    1
  56     1.0000     1.0300     0.4786    1    1
  57     1.0000     1.0300     0.4604    1    1
  58     1.0000     1.0020     0.4380    1    1
  59     1.0000     1.0232     0.3975    1    1
  60     1.0000     1.0400     0.5377    1    1
  61     1.0000     1.0400     0.4799    1    1
  62     1.0000     1.0104     0.4269    1    1
  63     1.0000     1.0028     0.3135    1    1
  64     1.0000     1.0055     0.2595    1    1
  65     1.0000     1.0400     0.2813    1    1
  66     1.0000     1.0193     0.3663    1    1
  67     1.0000     1.0021     0.2939    1    1
  68     1.0000     0.9900     0.2255    1    1
  69     1.0000     1.0178     0.2533    1    1
  70     1.0000     0.9987     0.2401    1    1
  71     1.0000     1.0000     0.1978    1    1
  72     1.0000     1.0500     0.1810    1    1
  73     1.0000     1.0295     0.0298    1    1
  74     1.0000     1.0268     0.0054    1    1
  75     1.0000     1.0425     0.0214    1    1
  76     1.0000     1.0485     0.0133    1    1
  77     1.0000     1.0360     0.0096    1    1
  78     1.0000     1.0200     0.0000    1    1
  79     1.0000     1.0500     0.1426    1    1
  80     1.0000     1.0232     0.0110    1    1
  81     1.0000     1.0208    -0.0578    1    1
  82     1.0000     1.0500     0.1321    1    1
  83     1.0000     1.0098     0.4055    1    1
  84     1.0000     1.0138     0.4139    1    1
  85     1.0000     1.0797     0.6115    1    1
  86     1.0000     1.0000     0.7053    1    1
  87     1.0000     1.0196     0.5754    1    1
  88     1.0000     1.0514     0.5580    1    1
  89     1.0000     1.0184     0.5174    1    1
  90     1.0000     1.0127     0.5157    1    1
  91     1.0000     1.0400     0.2139    1    1
  92     1.0000     1.0400     0.3446    1    1
  93     1.0000     0.9766     0.1529    1    1
  94     1.0000     0.9770     0.1572    1    1
  95     1.0000     0.9789     0.2738    1    1
  96     1.0000     1.0260     0.2837    1    1
  97     1.0000     1.0400     0.2639    1    1
  98     1.0000     1.0400     0.5715    1    1
  99     1.0000     1.0396     0.5596    1    1
 100     1.0000     1.0428     0.4693    1    1
 101     1.0000     1.0500     0.4382    1    1
 102     1.0000     1.0211     0.4581    1    1
 103     1.0000     1.0117     0.4548    1    1
 104     1.0000     1.0066     0.2468    1    1
 105     1.0000     1.0317     0.4250    1    1
 106     1.0000     1.0090     0.2710    1    1
 107     1.0000     1.0188     0.2936    1    1
 108     1.0000     1.0099     0.2596    1    1
 109     1.0000     1.0099     0.2592    1    1
 110     1.0000     1.0108     0.2343    1    1
 111     1.0000     0.9830     0.1954    1    1
 112     1.0000     1.0485     0.5085    1    1
 113     1.0000     1.0107     0.3974    1    1
 114     1.0000     1.0059     0.5249    1    1
 115     1.0000     1.0200     0.5725    1    1
 116     1.0000     1.0071     0.4619    1    1
 117     1.0000     1.0062     0.5288    1    1
 118     1.0000     1.0003     0.5455    1    1
 119     1.0000     1.0000     0.5182    1    1
 120     1.0000     1.0200     0.4564    1    1
 121     1.0000     1.0400     0.5652    1    1
 122     1.0000     1.0500     0.5569    1    1
 123     1.0000     1.0100     0.6471    1    1
 124     1.0000     1.0417     0.0409    1    1
 125     1.0000     1.0207    -0.0601    1    1
 126     1.0000     1.0208    -0.0950    1    1
 127     1.0000     1.0463     0.1139    1    1
 128     1.0000     1.0375     0.0470    1    1
 129     1.0000     1.0229     0.1554    1    1
 130     1.0000     1.0200     0.2122    1    1
 131     1.0000     1.0261     0.2333    1    1
 132     1.0000     1.0393     0.3410    1    1
 133     1.0000     1.0200     0.5988    1    1
 134     1.0000     1.0300     0.4475    1    1
 135     1.0000     1.0200     0.6102    1    1
 136     1.0000     1.0006     0.3441    1    1
 137     1.0000     1.0400     0.3547    1    1
 138     1.0000     0.9700     0.2386    1    1
 139     1.0000     1.0100     0.5090    1    1
 140     1.0000     1.0413     0.5375    1    1
];

%SW data: 1
SW.con = [...
  78   100.0000     1.0000     1.0200     0.0000     9.9900    -9.9900     1.1000     0.9000     6.3210     1.0000    1    1
];

%PV data: 45
PV.con = [...
  21   100.0000     1.0000     6.5000     0.9800     9.9900    -9.9900     1.1000     0.9000     1.0000    1
  22   100.0000     1.0000     6.3200     0.9900     9.9900    -9.9900     1.1000     0.9000     1.0000    1
  23   100.0000     1.0000     5.0300     1.0066    19.9800   -19.9800     1.1000     0.9000     1.0000    1
  24   100.0000     1.0000     7.0000     1.0500     9.9900    -9.9900     1.1000     0.9000     1.0000    1
  25   100.0000     1.0000     5.6000     1.0600     9.9900    -9.9900     1.1000     0.9000     1.0000    1
  26   100.0000     1.0000     8.0000     1.0200     9.9900    -9.9900     1.1000     0.9000     1.0000    1
  27   100.0000     1.0000     5.4000     1.0200     9.9900    -9.9900     1.1000     0.9000     1.0000    1
  36   100.0000     1.0000     5.5400     0.9800     9.9900    -9.9900     1.1000     0.9000     1.0000    1
  42   100.0000     1.0000     3.7000     1.0400     9.9900    -9.9900     1.1000     0.9000     1.0000    1
  47   100.0000     1.0000     4.0000     1.0300     9.9900    -9.9900     1.1000     0.9000     1.0000    1
  48   100.0000     1.0000     4.0000     1.0500     9.9900    -9.9900     1.1000     0.9000     1.0000    1
  50   100.0000     1.0000     6.0000     1.0500     9.9900    -9.9900     1.1000     0.9000     1.0000    1
  51   100.0000     1.0000     1.4100     1.0400     9.9900    -9.9900     1.1000     0.9000     1.0000    1
  53   100.0000     1.0000     8.3300     1.0300     9.9900    -9.9900     1.1000     0.9000     1.0000    1
  54   100.0000     1.0000    11.1500     1.0408    19.9800   -19.9800     1.1000     0.9000     1.0000    1
  55   100.0000     1.0000    10.9500     1.0400     9.9900    -9.9900     1.1000     0.9000     1.0000    1
  56   100.0000     1.0000     4.1000     1.0300     9.9900    -9.9900     1.1000     0.9000     1.0000    1
  57   100.0000     1.0000     2.9800     1.0300     9.9900    -9.9900     1.1000     0.9000     1.0000    1
  60   100.0000     1.0000     4.1000     1.0400     9.9900    -9.9900     1.1000     0.9000     1.0000    1
  61   100.0000     1.0000     1.9400     1.0400     9.9900    -9.9900     1.1000     0.9000     1.0000    1
  65   100.0000     1.0000     0.9100     1.0400     9.9900    -9.9900     1.1000     0.9000     1.0000    1
  68   100.0000     1.0000     0.6600     0.9900     9.9900    -9.9900     1.1000     0.9000     1.0000    1
  71   100.0000     1.0000     1.3400     1.0000     9.9900    -9.9900     1.1000     0.9000     1.0000    1
  72   100.0000     1.0000     1.5000     1.0500     9.9900    -9.9900     1.1000     0.9000     1.0000    1
  79   100.0000     1.0000    10.0000     1.0500     9.9900    -9.9900     1.1000     0.9000     1.0000    1
  80   100.0000     1.0000     7.2000     1.0232     9.9900    -9.9900     1.1000     0.9000     1.0000    1
  82   100.0000     1.0000     4.6000     1.0500     9.9900    -9.9900     1.1000     0.9000     1.0000    1
  86   100.0000     1.0000    16.5000     1.0000     9.9900    -9.9900     1.1000     0.9000     1.0000    1
  91   100.0000     1.0000     9.3000     1.0400     9.9900    -9.9900     1.1000     0.9000     1.0000    1
  92   100.0000     1.0000     4.5000     1.0400     9.9900    -9.9900     1.1000     0.9000     1.0000    1
  97   100.0000     1.0000     6.0000     1.0400     9.9900    -9.9900     1.1000     0.9000     1.0000    1
  98   100.0000     1.0000     5.8500     1.0400     9.9900    -9.9900     1.1000     0.9000     1.0000    1
 101   100.0000     1.0000    12.0000     1.0500     9.9900    -9.9900     1.1000     0.9000     1.0000    1
 115   100.0000     1.0000     5.5000     1.0200     9.9900    -9.9900     1.1000     0.9000     1.0000    1
 119   100.0000     1.0000     5.5000     1.0000     9.9900    -9.9900     1.1000     0.9000     1.0000    1
 120   100.0000     1.0000     7.0000     1.0200     9.9900    -9.9900     1.1000     0.9000     1.0000    1
 121   100.0000     1.0000     1.4500     1.0400     9.9900    -9.9900     1.1000     0.9000     1.0000    1
 122   100.0000     1.0000     1.5500     1.0500     9.9900    -9.9900     1.1000     0.9000     1.0000    1
 123   100.0000     1.0000     6.5500     1.0100     9.9900    -9.9900     1.1000     0.9000     1.0000    1
 130   100.0000     1.0000     4.9000     1.0200     9.9900    -9.9900     1.1000     0.9000     1.0000    1
 133   100.0000     1.0000    17.0000     1.0200     9.9900    -9.9900     1.1000     0.9000     1.0000    1
 134   100.0000     1.0000     8.8000     1.0300     9.9900    -9.9900     1.1000     0.9000     1.0000    1
 135   100.0000     1.0000    23.3000     1.0200     9.9900    -9.9900     1.1000     0.9000     1.0000    1
 137   100.0000     1.0000     0.7000     1.0400     9.9900    -9.9900     1.1000     0.9000     1.0000    1
 139   100.0000     1.0000     1.1500     1.0100     9.9900    -9.9900     1.1000     0.9000     1.0000    1
];

%PQ data: 83
PQ.con = [...
   3   100.0000     1.0000     0.0642     0.6282     1.1000     0.9000    0    1
   6   100.0000     1.0000     2.0997     1.0039     1.1000     0.9000    0    1
   7   100.0000     1.0000     2.2946     0.2232     1.1000     0.9000    0    1
   9   100.0000     1.0000     1.0549     0.2003     1.1000     0.9000    0    1
  11   100.0000     1.0000     5.2370     0.7932     1.1000     0.9000    0    1
  12   100.0000     1.0000     0.9737     0.4087     1.1000     0.9000    0    1
  14   100.0000     1.0000     1.4947     0.5123     1.1000     0.9000    0    1
  15   100.0000     1.0000     3.0900    -0.9200     1.1000     0.9000    0    1
  16   100.0000     1.0000     0.9475     0.1988     1.1000     0.9000    0    1
  17   100.0000     1.0000     0.4356     0.0533     1.1000     0.9000    0    1
  18   100.0000     1.0000     1.2662     0.3425     1.1000     0.9000    0    1
  19   100.0000     1.0000     0.8754     0.1190     1.1000     0.9000    0    1
  20   100.0000     1.0000     1.3870     0.1319     1.1000     0.9000    0    1
  30   100.0000     1.0000     2.2967     0.0143     1.1000     0.9000    0    1
  31   100.0000     1.0000     2.2837     0.8404     1.1000     0.9000    0    1
  34   100.0000     1.0000     0.4748     0.1704     1.1000     0.9000    0    1
  35   100.0000     1.0000     0.9827     0.3332     1.1000     0.9000    0    1
  36   100.0000     1.0000     0.0550     0.0305     1.1000     0.9000    0    1
  41   100.0000     1.0000     4.5785     0.9811     1.1000     0.9000    0    1
  42   100.0000     1.0000     0.7160     0.0688     1.1000     0.9000    0    1
  45   100.0000     1.0000     0.9006     0.1477     1.1000     0.9000    0    1
  46   100.0000     1.0000     0.2300    -0.4250     1.1000     0.9000    0    1
  47   100.0000     1.0000     2.6827     0.8129     1.1000     0.9000    0    1
  49   100.0000     1.0000     1.3641     0.3082     1.1000     0.9000    0    1
  51   100.0000     1.0000     0.9974     0.1364     1.1000     0.9000    0    1
  53   100.0000     1.0000     6.8537     1.8564     1.1000     0.9000    0    1
  54   100.0000     1.0000     0.2000     0.0000     1.1000     0.9000    0    1
  55   100.0000     1.0000     6.8172     0.9728     1.1000     0.9000    0    1
  56   100.0000     1.0000     1.2050     0.3503     1.1000     0.9000    0    1
  57   100.0000     1.0000     2.4000    -0.0600     1.1000     0.9000    0    1
  58   100.0000     1.0000     0.5741     0.2734     1.1000     0.9000    0    1
  59   100.0000     1.0000     2.5756     0.9060     1.1000     0.9000    0    1
  61   100.0000     1.0000     0.9442     0.0478     1.1000     0.9000    0    1
  64   100.0000     1.0000     1.0919     0.1909     1.1000     0.9000    0    1
  65   100.0000     1.0000     0.9100     0.0000     1.1000     0.9000    0    1
  68   100.0000     1.0000     0.3126     0.0607     1.1000     0.9000    0    1
  71   100.0000     1.0000     1.0757     0.1537     1.1000     0.9000    0    1
  74   100.0000     1.0000     1.0200     0.0000     1.1000     0.9000    0    1
  78   100.0000     1.0000     5.6702     1.7011     1.1000     0.9000    0    1
  80   100.0000     1.0000     5.2893     0.1889     1.1000     0.9000    0    1
  83   100.0000     1.0000     0.1582     0.0316     1.1000     0.9000    0    1
  85   100.0000     1.0000     0.1800     0.0000     1.1000     0.9000    0    1
  86   100.0000     1.0000     0.0730     0.0365     1.1000     0.9000    0    1
  88   100.0000     1.0000     0.1220     0.0610     1.1000     0.9000    0    1
  89   100.0000     1.0000     0.1987     0.1391     1.1000     0.9000    0    1
  90   100.0000     1.0000     0.2876     0.1125     1.1000     0.9000    0    1
  91   100.0000     1.0000     7.2705     2.2032     1.1000     0.9000    0    1
  92   100.0000     1.0000     0.0676     2.1622     1.1000     0.9000    0    1
  93   100.0000     1.0000     1.2500     0.0000     1.1000     0.9000    0    1
  94   100.0000     1.0000     0.9500     0.0000     1.1000     0.9000    0    1
  95   100.0000     1.0000    -1.0000     0.8700     1.1000     0.9000    0    1
  96   100.0000     1.0000    -0.4000    -0.2500     1.1000     0.9000    0    1
  97   100.0000     1.0000     4.7410     0.2605     1.1000     0.9000    0    1
 101   100.0000     1.0000     2.4719     0.9181     1.1000     0.9000    0    1
 104   100.0000     1.0000     1.5568     0.7005     1.1000     0.9000    0    1
 105   100.0000     1.0000     3.2500     0.0000     1.1000     0.9000    0    1
 106   100.0000     1.0000     0.0000    -0.1200     1.1000     0.9000    0    1
 107   100.0000     1.0000     0.0000    -0.1900     1.1000     0.9000    0    1
 108   100.0000     1.0000     0.0000    -0.1300     1.1000     0.9000    0    1
 109   100.0000     1.0000     0.0000    -0.1300     1.1000     0.9000    0    1
 110   100.0000     1.0000     1.0239     0.1783     1.1000     0.9000    0    1
 111   100.0000     1.0000     2.3505     0.2651     1.1000     0.9000    0    1
 113   100.0000     1.0000     2.0600     0.0000     1.1000     0.9000    0    1
 114   100.0000     1.0000     0.0000     0.9000     1.1000     0.9000    0    1
 115   100.0000     1.0000     1.0000     0.0000     1.1000     0.9000    0    1
 116   100.0000     1.0000     2.0000     0.0000     1.1000     0.9000    0    1
 117   100.0000     1.0000     2.3725     0.5753     1.1000     0.9000    0    1
 118   100.0000     1.0000     1.5874     0.4876     1.1000     0.9000    0    1
 119   100.0000     1.0000     3.5479     0.9461     1.1000     0.9000    0    1
 120   100.0000     1.0000     9.4600    -0.4000     1.1000     0.9000    0    1
 123   100.0000     1.0000     0.2181     0.0346     1.1000     0.9000    0    1
 124   100.0000     1.0000     2.8947     0.3833     1.1000     0.9000    0    1
 125   100.0000     1.0000     0.6735     0.0105     1.1000     0.9000    0    1
 126   100.0000     1.0000     4.5000     0.0000     1.1000     0.9000    0    1
 127   100.0000     1.0000     2.0000    -1.5000     1.1000     0.9000    0    1
 128   100.0000     1.0000     9.7000    -1.0200     1.1000     0.9000    0    1
 129   100.0000     1.0000     6.1000    -0.5000     1.1000     0.9000    0    1
 130   100.0000     1.0000     1.8000     0.0000     1.1000     0.9000    0    1
 131   100.0000     1.0000    11.6000    -4.3200     1.1000     0.9000    0    1
 132   100.0000     1.0000     2.1000    -3.3700     1.1000     0.9000    0    1
 135   100.0000     1.0000     1.7000     0.0000     1.1000     0.9000    0    1
 136   100.0000     1.0000     1.1034     0.9114     1.1000     0.9000    0    1
 138   100.0000     1.0000     0.2223     0.1294     1.1000     0.9000    0    1
];

%Shunt data: 12
Shunt.con = [...
  41   100.0000     1.0000    60.0000     0.0000     0.2500    1
  45   100.0000     1.0000    60.0000     0.0000     0.2500    1
  47   100.0000     1.0000    60.0000     0.0000     0.6000    1
  48   100.0000     1.0000    60.0000     0.0000    -0.0100    1
  49   100.0000     1.0000    60.0000     0.0000     0.1000    1
  51   100.0000     1.0000    60.0000     0.0000     0.2500    1
  54   100.0000     1.0000    60.0000     0.0000    -1.1200    1
  55   100.0000     1.0000    60.0000     0.0000     0.0200    1
  56   100.0000     1.0000    60.0000     0.0000     0.0600    1
  58   100.0000     1.0000    60.0000     0.0000     0.0200    1
  59   100.0000     1.0000    60.0000     0.0000     0.5000    1
  61   100.0000     1.0000    60.0000     0.0000     0.0400    1
];

%Line Data: 233
Line.con = [...
   2    1 100.00000   1.00000  60.00000    0   0.00000   0.00040   0.00430   0.07000   1.00000   0.00000   5.17580   0.00000   0.00000   1.00000 
   2   33 100.00000   1.00000  60.00000    0   0.00000   0.00070   0.00820   0.14000   1.00000   0.00000   7.96670   0.00000   0.00000   1.00000 
   4    1 100.00000   1.00000  60.00000    0   0.00000   0.00040   0.00430   0.07000   1.00000   0.00000   4.84110   0.00000   0.00000   1.00000 
   5    4 100.00000   1.00000  60.00000    0   0.00000   0.00090   0.01010   0.17000   1.00000   0.00000   3.53820   0.00000   0.00000   1.00000 
   5   31 100.00000   1.00000  60.00000    0   0.00000   0.00080   0.01290   0.14000   1.00000   0.00000   7.83630   0.00000   0.00000   1.00000 
   6    5 100.00000   1.00000  60.00000    0   0.00000   0.00180   0.02170   0.37000   1.00000   0.00000   1.25280   0.00000   0.00000   1.00000 
   7    6 100.00000   1.00000  60.00000    0   0.00000   0.00090   0.00940   0.17000   1.00000   0.00000   4.17970   0.00000   0.00000   1.00000 
   8    7 100.00000   1.00000  60.00000    0   0.00000   0.00070   0.00890   0.13000   1.00000   0.00000   5.64530   0.00000   0.00000   1.00000 
   9    8 100.00000   1.00000  60.00000    0   0.00000   0.00070   0.00820   0.13000   1.00000   0.00000   3.62360   0.00000   0.00000   1.00000 
   9   30 100.00000   1.00000  60.00000    0   0.00000   0.00110   0.01330   0.21000   1.00000   0.00000   0.41410   0.00000   0.00000   1.00000 
  10    7 100.00000   1.00000  60.00000    0   0.00000   0.00160   0.01950   0.30000   1.00000   0.00000   2.50470   0.00000   0.00000   1.00000 
  12    7 100.00000   1.00000  60.00000    0   0.00000   0.00080   0.01350   0.25000   1.00000   0.00000   6.97030   0.00000   0.00000   1.00000 
  13   12 100.00000   1.00000  60.00000    0   0.00000   0.00080   0.01400   0.26000   1.00000   0.00000   8.35820   0.00000   0.00000   1.00000 
  14   13 100.00000   1.00000  60.00000    0   0.00000   0.00060   0.00960   0.18000   1.00000   0.00000   1.23970   0.00000   0.00000   1.00000 
  15    7 100.00000   1.00000  60.00000    0   0.00000   0.00030   0.00590   0.07000   1.00000   0.00000   1.54840   0.00000   0.00000   1.00000 
  15   14 100.00000   1.00000  60.00000    0   0.00000   0.00220   0.03500   0.36000   1.00000   0.00000   3.62110   0.00000   0.00000   1.00000 
  16   29 100.00000   1.00000  60.00000    0   0.00000   0.00700   0.00860   0.15000   1.00000   0.00000   4.01490   0.00000   0.00000   1.00000 
  17   16 100.00000   1.00000  60.00000    0   0.00000   0.00320   0.03230   0.53000   1.00000   0.00000   1.87990   0.00000   0.00000   1.00000 
  18    8 100.00000   1.00000  60.00000    0   0.00000   0.00130   0.01730   0.32000   1.00000   0.00000   0.62220   0.00000   0.00000   1.00000 
  18   17 100.00000   1.00000  60.00000    0   0.00000   0.00140   0.01470   0.24000   1.00000   0.00000   5.88860   0.00000   0.00000   1.00000 
  19   17 100.00000   1.00000  60.00000    0   0.00000   0.00430   0.04740   0.78000   1.00000   0.00000   2.32840   0.00000   0.00000   1.00000 
  20   17 100.00000   1.00000  60.00000    0   0.00000   0.00570   0.06250   1.03000   1.00000   0.00000   3.15910   0.00000   0.00000   1.00000 
  20   19 100.00000   1.00000  60.00000    0   0.00000   0.00140   0.01510   0.25000   1.00000   0.00000   3.29440   0.00000   0.00000   1.00000 
  30   29 100.00000   1.00000  60.00000    0   0.00000   0.00130   0.01510   0.26000   1.00000   0.00000   3.28920   0.00000   0.00000   1.00000 
  31   30 100.00000   1.00000  60.00000    0   0.00000   0.00130   0.02130   0.22000   1.00000   0.00000   2.28750   0.00000   0.00000   1.00000 
  32   31 100.00000   1.00000  60.00000    0   0.00000   0.00080   0.01280   0.13000   1.00000   0.00000   2.62440   0.00000   0.00000   1.00000 
  33   32 100.00000   1.00000  60.00000    0   0.00000   0.00020   0.00260   0.04000   1.00000   0.00000  10.54340   0.00000   0.00000   1.00000 
  34   33 100.00000   1.00000  60.00000    0   0.00000   0.00060   0.00920   0.11000   1.00000   0.00000  13.49600   0.00000   0.00000   1.00000 
  35   32 100.00000   1.00000  60.00000    0   0.00000   0.00080   0.01120   0.15000   1.00000   0.00000   7.55570   0.00000   0.00000   1.00000 
  35   34 100.00000   1.00000  60.00000    0   0.00000   0.00040   0.00460   0.08000   1.00000   0.00000   4.09770   0.00000   0.00000   1.00000 
  37   29 100.00000   1.00000  60.00000    0   0.00000   0.00350   0.04110   0.70000   1.00000   0.00000   2.58840   0.00000   0.00000   1.00000 
  38   37 100.00000   1.00000  60.00000    0   0.00000   0.00160   0.01630   0.25000   1.00000   0.00000   7.41220   0.00000   0.00000   1.00000 
  39   37 100.00000   1.00000  60.00000    0   0.00000   0.00080   0.00740   0.48000   1.00000   0.00000   7.85490   0.00000   0.00000   1.00000 
  40   37 100.00000   1.00000  60.00000    0   0.00000   0.00090   0.03150   0.06000   1.00000   0.00000   8.53470   0.00000   0.00000   1.00000 
  42   41 100.00000   1.00000  60.00000    0   0.00000   0.00180   0.00890   0.07000   1.00000   0.00000   1.27010   0.00000   0.00000   1.00000 
  43   37 100.00000   1.00000  60.00000    0   0.00000   0.00130   0.01880   1.31000   1.00000   0.00000   4.91820   0.00000   0.00000   1.00000 
  44   40 100.00000   1.00000  60.00000    0   0.00000   0.00800   0.05300   0.40000   1.00000   0.00000   7.49620   0.00000   0.00000   1.00000 
  44   43 100.00000   1.00000  60.00000    0   0.00000   0.00000   0.01100   0.00000   1.00000   0.00000   8.34330   0.00000   0.00000   1.00000 
  45   41 100.00000   1.00000  60.00000    0   0.00000   0.07760   0.22410   0.13000   1.00000   0.00000   1.08210   0.00000   0.00000   1.00000 
  45   44 100.00000   1.00000  60.00000    0   0.00000   0.00000   0.02050   0.00000   1.00000   0.00000   5.90950   0.00000   0.00000   1.00000 
  46   45 100.00000   1.00000  60.00000    0   0.00000   0.12350   0.35480   0.16000   1.00000   0.00000   0.24810   0.00000   0.00000   1.00000 
  47   46 100.00000   1.00000  60.00000    0   0.00000   0.06320   0.12100   0.05000   1.00000   0.00000   1.21250   0.00000   0.00000   1.00000 
  48   44 100.00000   1.00000  60.00000    0   0.00000   0.01500   0.10500   0.79000   1.00000   0.00000   1.73330   0.00000   0.00000   1.00000 
  48   47 100.00000   1.00000  60.00000    0   0.00000   0.00000   0.03300   0.00000   1.00000   0.00000   3.21110   0.00000   0.00000   1.00000 
  49   46 100.00000   1.00000  60.00000    0   0.00000   0.16400   0.57800   0.06000   1.00000   0.00000   0.16100   0.00000   0.00000   1.00000 
  50   43 100.00000   1.00000  60.00000    0   0.00000   0.00250   0.02680   0.40000   1.00000   0.00000   6.38710   0.00000   0.00000   1.00000 
  50   43 100.00000   1.00000  60.00000    0   0.00000   0.00250   0.02680   0.40000   1.00000   0.00000   4.99830   0.00000   0.00000   1.00000 
  51   45 100.00000   1.00000  60.00000    0   0.00000   0.06050   0.18960   0.08000   1.00000   0.00000   1.43320   0.00000   0.00000   1.00000 
  51   50 100.00000   1.00000  60.00000    0   0.00000   0.00000   0.02070   0.00000   1.00000   0.00000   9.06990   0.00000   0.00000   1.00000 
  52   50 100.00000   1.00000  60.00000    0   0.00000   0.00200   0.02200   1.28000   1.00000   0.00000  15.88740   0.00000   0.00000   1.00000 
  53   51 100.00000   1.00000  60.00000    0   0.00000   0.08440   0.21610   0.22000   1.00000   0.00000   1.28850   0.00000   0.00000   1.00000 
  53   52 100.00000   1.00000  60.00000    0   0.00000   0.00140   0.03880   0.00000   1.00000   0.00000   1.34150   0.00000   0.00000   1.00000 
  55   53 100.00000   1.00000  60.00000    0   0.00000   0.03000   0.10700   0.30000   1.00000   0.00000   4.05110   0.00000   0.00000   1.00000 
  56   54 100.00000   1.00000  60.00000    0   0.00000   0.01000   0.00800   0.07000   1.00000   0.00000   2.96490   0.00000   0.00000   1.00000 
  57   55 100.00000   1.00000  60.00000    0   0.00000   0.00740   0.04000   0.02000   1.00000   0.00000   0.64600   0.00000   0.00000   1.00000 
  58   56 100.00000   1.00000  60.00000    0   0.00000   0.00200   0.01500   0.11000   1.00000   0.00000  10.78350   0.00000   0.00000   1.00000 
  59   55 100.00000   1.00000  60.00000    0   0.00000   0.01600   0.08170   0.04000   1.00000   0.00000   2.43040   0.00000   0.00000   1.00000 
  59   57 100.00000   1.00000  60.00000    0   0.00000   0.01400   0.06800   0.03000   1.00000   0.00000   2.05680   0.00000   0.00000   1.00000 
  60   58 100.00000   1.00000  60.00000    0   0.00000   0.00350   0.03440   0.27000   1.00000   0.00000  10.67740   0.00000   0.00000   1.00000 
  61   59 100.00000   1.00000  60.00000    0   0.00000   0.06800   0.14300   0.06000   1.00000   0.00000   1.62450   0.00000   0.00000   1.00000 
  62   54 100.00000   1.00000  60.00000    0   0.00000   0.00800   0.06900   0.13000   1.00000   0.00000   3.04470   0.00000   0.00000   1.00000 
  62   58 100.00000   1.00000  60.00000    0   0.00000   0.00200   0.01800   0.03000   1.00000   0.00000   1.88430   0.00000   0.00000   1.00000 
  63   62 100.00000   1.00000  60.00000    0   0.00000   0.01290   0.08030   0.15000   1.00000   0.00000   2.29880   0.00000   0.00000   1.00000 
  64   63 100.00000   1.00000  60.00000    0   0.00000   0.00000   0.04600   0.00000   1.00000   0.00000   2.27710   0.00000   0.00000   1.00000 
  65   53 100.00000   1.00000  60.00000    0   0.00000   0.03500   0.08000   0.05000   1.00000   0.00000   1.59860   0.00000   0.00000   1.00000 
  65   64 100.00000   1.00000  60.00000    0   0.00000   0.03500   0.08000   0.05000   1.00000   0.00000   0.25570   0.00000   0.00000   1.00000 
  67   63 100.00000   1.00000  60.00000    0   0.00000   0.01200   0.09300   0.18000   1.00000   0.00000   0.22110   0.00000   0.00000   1.00000 
  67   66 100.00000   1.00000  60.00000    0   0.00000   0.00000   0.02310   0.00000   1.00000   0.00000   6.23480   0.00000   0.00000   1.00000 
  68   64 100.00000   1.00000  60.00000    0   0.00000   0.09880   0.23100   0.13000   1.00000   0.00000   0.34280   0.00000   0.00000   1.00000 
  68   67 100.00000   1.00000  60.00000    0   0.00000   0.00000   0.04900   0.00000   1.00000   0.00000   0.95770   0.00000   0.00000   1.00000 
  69   38 100.00000   1.00000  60.00000    0   0.00000   0.00430   0.04850   0.79000   1.00000   0.00000   6.74390   0.00000   0.00000   1.00000 
  69   66 100.00000   1.00000  60.00000    0   0.00000   0.00180   0.02740   0.27000   1.00000   0.00000  13.26640   0.00000   0.00000   1.00000 
  70   67 100.00000   1.00000  60.00000    0   0.00000   0.00700   0.06190   0.12000   1.00000   0.00000   0.71760   0.00000   0.00000   1.00000 
  71   45 100.00000   1.00000  60.00000    0   0.00000   0.17510   0.55750   0.12000   1.00000   0.00000   0.41220   0.00000   0.00000   1.00000 
  71   68 100.00000   1.00000  60.00000    0   0.00000   0.12030   0.20480   0.07000   1.00000   0.00000   0.16780   0.00000   0.00000   1.00000 
  71   69 100.00000   1.00000  60.00000    0   0.00000   0.00000   0.03750   0.00000   1.00000   0.00000   5.40880   0.00000   0.00000   1.00000 
  71   70 100.00000   1.00000  60.00000    0   0.00000   0.00000   0.04900   0.00000   1.00000   0.00000   2.00680   0.00000   0.00000   1.00000 
  72   51 100.00000   1.00000  60.00000    0   0.00000   0.00510   0.02320   0.30000   1.00000   0.00000   1.59680   0.00000   0.00000   1.00000 
  72   71 100.00000   1.00000  60.00000    0   0.00000   0.00530   0.01350   0.10000   1.00000   0.00000   3.27370   0.00000   0.00000   1.00000 
  73   35 100.00000   1.00000  60.00000    0   0.00000   0.00230   0.03630   0.38000   1.00000   0.00000   2.77670   0.00000   0.00000   1.00000 
  73   39 100.00000   1.00000  60.00000    0   0.00000   0.00190   0.01830   0.29000   1.00000   0.00000   5.05140   0.00000   0.00000   1.00000 
  73   39 100.00000   1.00000  60.00000    0   0.00000   0.00190   0.01830   0.29000   1.00000   0.00000   5.09810   0.00000   0.00000   1.00000 
  74   73 100.00000   1.00000  60.00000    0   0.00000   0.00220   0.01960   0.34000   1.00000   0.00000   3.87680   0.00000   0.00000   1.00000 
  74   73 100.00000   1.00000  60.00000    0   0.00000   0.00220   0.01960   0.34000   1.00000   0.00000   1.43590   0.00000   0.00000   1.00000 
  77   74 100.00000   1.00000  60.00000    0   0.00000   0.00030   0.00430   0.08000   1.00000   0.00000   5.05260   0.00000   0.00000   1.00000 
  77   76 100.00000   1.00000  60.00000    0   0.00000   0.00300   0.00680   1.37000   1.00000   0.00000   5.67520   0.00000   0.00000   1.00000 
  78   74 100.00000   1.00000  60.00000    0   0.00000   0.00050   0.00450   0.32000   1.00000   0.00000   1.67190   0.00000   0.00000   1.00000 
  78   74 100.00000   1.00000  60.00000    0   0.00000   0.00050   0.00450   0.32000   1.00000   0.00000   5.94560   0.00000   0.00000   1.00000 
  79   78 100.00000   1.00000  60.00000    0   0.00000   0.00030   0.01530   0.00000   1.00000   0.00000  31.46260   0.00000   0.00000   1.00000 
  80   78 100.00000   1.00000  60.00000    0   0.00000   0.01350   0.05820   0.50000   1.00000   0.00000   0.37010   0.00000   0.00000   1.00000 
  81   78 100.00000   1.00000  60.00000    0   0.00000   0.00050   0.02760   0.00000   1.00000   0.00000   1.56260   0.00000   0.00000   1.00000 
  82   78 100.00000   1.00000  60.00000    0   0.00000   0.00050   0.03080   0.00000   1.00000   0.00000   8.72890   0.00000   0.00000   1.00000 
  83  112 100.00000   1.00000  60.00000    0   0.00000   0.01850   0.15370   0.00000   1.00000   0.00000   2.18980   0.00000   0.00000   1.00000 
  83  113 100.00000   1.00000  60.00000    0   0.00000   0.00370   0.02020   0.00000   1.00000   0.00000   0.76920   0.00000   0.00000   1.00000 
  85  105 100.00000   1.00000  60.00000    0   0.00000   0.01000   0.10900   0.18000   1.00000   0.00000   3.20600   0.00000   0.00000   1.00000 
  85  105 100.00000   1.00000  60.00000    0   0.00000   0.01000   0.10900   0.18000   1.00000   0.00000   3.69740   0.00000   0.00000   1.00000 
  85  112 100.00000   1.00000  60.00000    0   0.00000   0.00690   0.05950   0.10000   1.00000   0.00000   1.66330   0.00000   0.00000   1.00000 
  85  112 100.00000   1.00000  60.00000    0   0.00000   0.00690   0.05950   0.10000   1.00000   0.00000   1.70230   0.00000   0.00000   1.00000 
  88   85 100.00000   1.00000  60.00000    0   0.00000   0.00160   0.02020   0.03000   1.00000   0.00000   9.76570   0.00000   0.00000   1.00000 
  88   85 100.00000   1.00000  60.00000    0   0.00000   0.00160   0.02020   0.03000   1.00000   0.00000   7.24670   0.00000   0.00000   1.00000 
  88  105 100.00000   1.00000  60.00000    0   0.00000   0.01120   0.09930   0.17000   1.00000   0.00000   1.80850   0.00000   0.00000   1.00000 
  88  105 100.00000   1.00000  60.00000    0   0.00000   0.01120   0.09930   0.17000   1.00000   0.00000   4.31850   0.00000   0.00000   1.00000 
  89   88 100.00000   1.00000  60.00000    0   0.00000   0.00050   0.02050   0.00000   1.00000   0.00000   1.75830   0.00000   0.00000   1.00000 
  89  105 100.00000   1.00000  60.00000    0   0.00000   0.08940   0.33630   0.00000   1.00000   0.00000   0.51450   0.00000   0.00000   1.00000 
  89  113 100.00000   1.00000  60.00000    0   0.00000   0.14560   0.41150   0.00000   1.00000   0.00000   0.74480   0.00000   0.00000   1.00000 
  90   89 100.00000   1.00000  60.00000    0   0.00000   0.00130   0.00490   0.00000   1.00000   0.00000   1.75840   0.00000   0.00000   1.00000 
  91  110 100.00000   1.00000  60.00000    0   0.00000   0.00170   0.01170   0.00000   1.00000   0.00000   5.17850   0.00000   0.00000   1.00000 
  92   91 100.00000   1.00000  60.00000    0   0.00000   0.00580   0.09280   0.00000   1.00000   0.00000   3.04030   0.00000   0.00000   1.00000 
  93   91 100.00000   1.00000  60.00000    0   0.00000   0.04210   0.29320   0.00000   1.00000   0.00000   0.94880   0.00000   0.00000   1.00000 
  94   93 100.00000   1.00000  60.00000    0   0.00000   0.00420   0.02830   0.00000   1.00000   0.00000   0.40880   0.00000   0.00000   1.00000 
  94  111 100.00000   1.00000  60.00000    0   0.00000   0.00490   0.03360   0.00000   1.00000   0.00000   0.79060   0.00000   0.00000   1.00000 
  95   91 100.00000   1.00000  60.00000    0   0.00000   0.02610   0.18440   0.00000   1.00000   0.00000   0.61650   0.00000   0.00000   1.00000 
  95   93 100.00000   1.00000  60.00000    0   0.00000   0.01870   0.12840   0.00000   1.00000   0.00000   1.49110   0.00000   0.00000   1.00000 
  96   95 100.00000   1.00000  60.00000    0   0.00000   0.01360   0.09550   0.00000   1.00000   0.00000   1.54410   0.00000   0.00000   1.00000 
  97   92 100.00000   1.00000  60.00000    0   0.00000   0.00080   0.03030   0.00000   1.00000   0.00000   4.87490   0.00000   0.00000   1.00000 
  97   96 100.00000   1.00000  60.00000    0   0.00000   0.01600   0.07670   0.00000   1.00000   0.00000   0.38600   0.00000   0.00000   1.00000 
  98   91 100.00000   1.00000  60.00000    0   0.00000   0.01200   0.08540   0.00000   1.00000   0.00000   9.83400   0.00000   0.00000   1.00000 
  99   98 100.00000   1.00000  60.00000    0   0.00000   0.00030   0.00920   0.00000   1.00000   0.00000   2.59640   0.00000   0.00000   1.00000 
 100   99 100.00000   1.00000  60.00000    0   0.00000   0.00100   0.07020   0.00000   1.00000   0.00000   4.28080   0.00000   0.00000   1.00000 
 102   54 100.00000   1.00000  60.00000    0   0.00000   0.00160   0.02480   0.06000   1.00000   0.00000   4.00240   0.00000   0.00000   1.00000 
 103   54 100.00000   1.00000  60.00000    0   0.00000   0.00160   0.02480   0.06000   1.00000   0.00000   4.64290   0.00000   0.00000   1.00000 
 104  101 100.00000   1.00000  60.00000    0   0.00000   0.00770   0.07730   0.00000   1.00000   0.00000   6.80200   0.00000   0.00000   1.00000 
 105  101 100.00000   1.00000  60.00000    0   0.00000   0.01880   0.14930   0.00000   1.00000   0.00000   0.41390   0.00000   0.00000   1.00000 
 106  104 100.00000   1.00000  60.00000    0   0.00000   0.00180   0.01800   0.00000   1.00000   0.00000   4.33360   0.00000   0.00000   1.00000 
 106  105 100.00000   1.00000  60.00000    0   0.00000   0.01650   0.11560   0.00000   1.00000   0.00000   0.94510   0.00000   0.00000   1.00000 
 107  101 100.00000   1.00000  60.00000    0   0.00000   0.00760   0.07510   0.00000   1.00000   0.00000   3.04870   0.00000   0.00000   1.00000 
 107  105 100.00000   1.00000  60.00000    0   0.00000   0.01150   0.11030   0.00000   1.00000   0.00000   0.62580   0.00000   0.00000   1.00000 
 108  101 100.00000   1.00000  60.00000    0   0.00000   0.00780   0.07720   0.00000   1.00000   0.00000   7.23020   0.00000   0.00000   1.00000 
 109  101 100.00000   1.00000  60.00000    0   0.00000   0.00780   0.07830   0.00000   1.00000   0.00000   4.84210   0.00000   0.00000   1.00000 
 110  101 100.00000   1.00000  60.00000    0   0.00000   0.04820   0.26360   0.00000   1.00000   0.00000   1.27230   0.00000   0.00000   1.00000 
 110  104 100.00000   1.00000  60.00000    0   0.00000   0.00060   0.00620   0.00000   1.00000   0.00000   2.51900   0.00000   0.00000   1.00000 
 110  107 100.00000   1.00000  60.00000    0   0.00000   0.00210   0.01860   0.00000   1.00000   0.00000   6.82180   0.00000   0.00000   1.00000 
 110  108 100.00000   1.00000  60.00000    0   0.00000   0.00260   0.01940   0.00000   1.00000   0.00000   1.78530   0.00000   0.00000   1.00000 
 110  109 100.00000   1.00000  60.00000    0   0.00000   0.00260   0.01940   0.00000   1.00000   0.00000   0.90480   0.00000   0.00000   1.00000 
 111  105 100.00000   1.00000  60.00000    0   0.00000   0.01310   0.08090   0.13000   1.00000   0.00000   2.16770   0.00000   0.00000   1.00000 
 111  108 100.00000   1.00000  60.00000    0   0.00000   0.00590   0.05770   0.00000   1.00000   0.00000   0.84390   0.00000   0.00000   1.00000 
 111  109 100.00000   1.00000  60.00000    0   0.00000   0.00590   0.05770   0.00000   1.00000   0.00000   2.05860   0.00000   0.00000   1.00000 
 112  105 100.00000   1.00000  60.00000    0   0.00000   0.00800   0.04970   0.30000   1.00000   0.00000   1.52910   0.00000   0.00000   1.00000 
 113  105 100.00000   1.00000  60.00000    0   0.00000   0.38240   0.94790   0.00000   1.00000   0.00000   0.06300   0.00000   0.00000   1.00000 
 113  112 100.00000   1.00000  60.00000    0   0.00000   0.01010   0.08730   0.00000   1.00000   0.00000   4.38180   0.00000   0.00000   1.00000 
 114   90 100.00000   1.00000  60.00000    0   0.00000   0.00240   0.01500   0.00000   1.00000   0.00000   1.18080   0.00000   0.00000   1.00000 
 115   87 100.00000   1.00000  60.00000    0   0.00000   0.00010   0.00180   0.02000   1.00000   0.00000   1.46840   0.00000   0.00000   1.00000 
 116   84 100.00000   1.00000  60.00000    0   0.00000   0.00150   0.10450   0.00000   1.00000   0.00000   1.03320   0.00000   0.00000   1.00000 
 116  115 100.00000   1.00000  60.00000    0   0.00000   0.07330   0.97990   0.00000   1.00000   0.00000   0.35860   0.00000   0.00000   1.00000 
 117  114 100.00000   1.00000  60.00000    0   0.00000   0.06630   0.36960   0.00000   1.00000   0.00000   0.01620   0.00000   0.00000   1.00000 
 117  115 100.00000   1.00000  60.00000    0   0.00000   0.00100   0.01140   0.00000   1.00000   0.00000   2.53530   0.00000   0.00000   1.00000 
 117  116 100.00000   1.00000  60.00000    0   0.00000   0.04740   0.26310   0.00000   1.00000   0.00000   0.23350   0.00000   0.00000   1.00000 
 118  115 100.00000   1.00000  60.00000    0   0.00000   0.16570   0.15510   0.00000   1.00000   0.00000   0.10820   0.00000   0.00000   1.00000 
 118  116 100.00000   1.00000  60.00000    0   0.00000   0.01170   0.07440   0.00000   1.00000   0.00000   3.04110   0.00000   0.00000   1.00000 
 118  117 100.00000   1.00000  60.00000    0   0.00000   0.00200   0.01990   0.00000   1.00000   0.00000   1.66080   0.00000   0.00000   1.00000 
 119  114 100.00000   1.00000  60.00000    0   0.00000   0.08760   0.25400   0.00000   1.00000   0.00000   0.08300   0.00000   0.00000   1.00000 
 119  115 100.00000   1.00000  60.00000    0   0.00000   0.00330   0.03920   0.00000   1.00000   0.00000   3.84910   0.00000   0.00000   1.00000 
 119  117 100.00000   1.00000  60.00000    0   0.00000   0.00170   0.01890   0.00000   1.00000   0.00000   1.42730   0.00000   0.00000   1.00000 
 120  116 100.00000   1.00000  60.00000    0   0.00000   0.23070   0.70410   0.00000   1.00000   0.00000   0.04530   0.00000   0.00000   1.00000 
 120  117 100.00000   1.00000  60.00000    0   0.00000   0.00670   0.07970   0.00000   1.00000   0.00000   2.92290   0.00000   0.00000   1.00000 
 120  118 100.00000   1.00000  60.00000    0   0.00000   0.00500   0.06290   0.00000   1.00000   0.00000   3.63030   0.00000   0.00000   1.00000 
 120  119 100.00000   1.00000  60.00000    0   0.00000   0.10650   0.34980   0.00000   1.00000   0.00000   0.56080   0.00000   0.00000   1.00000 
 121  114 100.00000   1.00000  60.00000    0   0.00000   0.00630   0.08020   0.00000   1.00000   0.00000   1.26620   0.00000   0.00000   1.00000 
 121  115 100.00000   1.00000  60.00000    0   0.00000   0.02200   0.29840   0.00000   1.00000   0.00000   0.06590   0.00000   0.00000   1.00000 
 121  116 100.00000   1.00000  60.00000    0   0.00000   0.09510   0.45760   0.00000   1.00000   0.00000   0.16690   0.00000   0.00000   1.00000 
 121  117 100.00000   1.00000  60.00000    0   0.00000   0.01500   0.08690   0.00000   1.00000   0.00000   1.50920   0.00000   0.00000   1.00000 
 121  118 100.00000   1.00000  60.00000    0   0.00000   0.13910   0.47980   0.00000   1.00000   0.00000   0.12700   0.00000   0.00000   1.00000 
 121  119 100.00000   1.00000  60.00000    0   0.00000   0.16360   0.58040   0.00000   1.00000   0.00000   0.26020   0.00000   0.00000   1.00000 
 122  116 100.00000   1.00000  60.00000    0   0.00000   0.00330   0.12870   0.00000   1.00000   0.00000   2.03550   0.00000   0.00000   1.00000 
 122  117 100.00000   1.00000  60.00000    0   0.00000   0.03830   0.08860   0.00000   1.00000   0.00000   1.13820   0.00000   0.00000   1.00000 
 122  118 100.00000   1.00000  60.00000    0   0.00000   0.09500   0.50710   0.00000   1.00000   0.00000   0.26180   0.00000   0.00000   1.00000 
 122  121 100.00000   1.00000  60.00000    0   0.00000   0.12500   0.46990   0.00000   1.00000   0.00000   0.05510   0.00000   0.00000   1.00000 
 123  118 100.00000   1.00000  60.00000    0   0.00000   0.00140   0.01740   0.00000   1.00000   0.00000  11.53630   0.00000   0.00000   1.00000 
 124   75 100.00000   1.00000  60.00000    0   0.00000   0.00070   0.01750   1.39000   1.00000   0.00000   2.71860   0.00000   0.00000   1.00000 
 125   81 100.00000   1.00000  60.00000    0   0.00000   0.00010   0.00110   0.00000   1.00000   0.00000   7.07180   0.00000   0.00000   1.00000 
 125  124 100.00000   1.00000  60.00000    0   0.00000   0.00250   0.07300   0.00000   1.00000   0.00000   2.42640   0.00000   0.00000   1.00000 
 126  124 100.00000   1.00000  60.00000    0   0.00000   0.00000   0.08390   0.00000   1.00000   0.00000   1.43740   0.00000   0.00000   1.00000 
 126  125 100.00000   1.00000  60.00000    0   0.00000   0.00000   0.04110   0.00000   1.00000   0.00000   1.05780   0.00000   0.00000   1.00000 
 127  124 100.00000   1.00000  60.00000    0   0.00000   0.00040   0.01050   0.72000   1.00000   0.00000  18.53460   0.00000   0.00000   1.00000 
 127  126 100.00000   1.00000  60.00000    0   0.00000   0.00000   0.25320   0.00000   1.00000   0.00000   2.58640   0.00000   0.00000   1.00000 
 128  124 100.00000   1.00000  60.00000    0   0.00000   0.00050   0.01170   0.84000   1.00000   0.00000   2.55290   0.00000   0.00000   1.00000 
 128  125 100.00000   1.00000  60.00000    0   0.00000   0.00490   0.26340   0.00000   1.00000   0.00000   0.48490   0.00000   0.00000   1.00000 
 128  126 100.00000   1.00000  60.00000    0   0.00000   0.00000   0.27410   0.00000   1.00000   0.00000   1.49170   0.00000   0.00000   1.00000 
 128  127 100.00000   1.00000  60.00000    0   0.00000   0.00000   0.13390   0.00000   1.00000   0.00000   1.18060   0.00000   0.00000   1.00000 
 129  128 100.00000   1.00000  60.00000    0   0.00000   0.00000   0.13810   0.00000   1.00000   0.00000   1.39220   0.00000   0.00000   1.00000 
 130  128 100.00000   1.00000  60.00000    0   0.00000   0.00070   0.01750   1.26000   1.00000   0.00000  19.71160   0.00000   0.00000   1.00000 
 130  129 100.00000   1.00000  60.00000    0   0.00000   0.00040   0.00850   0.60000   1.00000   0.00000  13.56630   0.00000   0.00000   1.00000 
 131  130 100.00000   1.00000  60.00000    0   0.00000   0.00020   0.00380   0.54000   1.00000   0.00000  14.48520   0.00000   0.00000   1.00000 
 132  127 100.00000   1.00000  60.00000    0   0.00000   0.00090   0.02210   1.62000   1.00000   0.00000  29.02870   0.00000   0.00000   1.00000 
 132  130 100.00000   1.00000  60.00000    0   0.00000   0.00070   0.01730   1.25000   1.00000   0.00000  10.85400   0.00000   0.00000   1.00000 
 133  131 100.00000   1.00000  60.00000    0   0.00000   0.00200   0.03900   2.77000   1.00000   0.00000   7.20300   0.00000   0.00000   1.00000 
 133  132 100.00000   1.00000  60.00000    0   0.00000   0.00120   0.02930   2.09000   1.00000   0.00000  26.72170   0.00000   0.00000   1.00000 
 134   66 100.00000   1.00000  60.00000    0   0.00000   0.00076   0.01141   1.16000   1.00000   0.00000  12.23790   0.00000   0.00000   1.00000 
 134  132 100.00000   1.00000  60.00000    0   0.00000   0.00235   0.04388   0.00000   1.00000   0.00000   7.10790   0.00000   0.00000   1.00000 
 135  115 100.00000   1.00000  60.00000    0   0.00000   0.00000   0.63090   0.00000   1.00000   0.00000   0.06330   0.00000   0.00000   1.00000 
 135  122 100.00000   1.00000  60.00000    0   0.00000   0.05730   0.75810   0.00000   1.00000   0.00000   0.06840   0.00000   0.00000   1.00000 
 135  131 100.00000   1.00000  60.00000    0   0.00000   0.00570   0.06990   0.00000   1.00000   0.00000  17.57410   0.00000   0.00000   1.00000 
 135  132 100.00000   1.00000  60.00000    0   0.00000   0.00120   0.02880   2.06000   1.00000   0.00000  29.79870   0.00000   0.00000   1.00000 
 135  133 100.00000   1.00000  60.00000    0   0.00000   0.00030   0.00630   0.45000   1.00000   0.00000   6.49310   0.00000   0.00000   1.00000 
 135  134 100.00000   1.00000  60.00000    0   0.00000   0.00460   0.06250   0.00000   1.00000   0.00000   8.23360   0.00000   0.00000   1.00000 
 136  134 100.00000   1.00000  60.00000    0   0.00000   0.00460   0.07820   0.79000   1.00000   0.00000   0.87020   0.00000   0.00000   1.00000 
 138   67 100.00000   1.00000  60.00000    0   0.00000   0.00630   0.04910   0.09000   1.00000   0.00000   2.72170   0.00000   0.00000   1.00000 
 138  126 100.00000   1.00000  60.00000    0   0.00000   0.00000   0.68050   0.00000   1.00000   0.00000   1.71610   0.00000   0.00000   1.00000 
 138  132 100.00000   1.00000  60.00000    0   0.00000   0.03310   0.42240   0.00000   1.00000   0.00000   0.59460   0.00000   0.00000   1.00000 
 138  137 100.00000   1.00000  60.00000    0   0.00000   0.25530   0.71800   0.00000   1.00000   0.00000   0.55670   0.00000   0.00000   1.00000 
...
];

Hvdc.con = [];

Bus.names = {...
      'bus1 ';'bus2 ';'bus3 ';'bus4 ';'bus5 ';
      'bus6 ';'bus7 ';'bus8 ';'bus9 ';'bus10 ';
      'bus11 ';'bus12 ';'bus13 ';'bus14 ';'bus15 ';
      'bus16 ';'bus17 ';'bus18 ';'bus19 ';'bus20 ';
      'bus21 ';'bus22 ';'bus23 ';'bus24 ';'bus25 ';
      'bus26 ';'bus27 ';'bus28 ';'bus29 ';'bus30 ';
      'bus31 ';'bus32 ';'bus33 ';'bus34 ';'bus35 ';
      'bus36 ';'bus37 ';'bus38 ';'bus39 ';'bus40 ';
      'bus41 ';'bus42 ';'bus43 ';'bus44 ';'bus45 ';
      'bus46 ';'bus47 ';'bus48 ';'bus49 ';'bus50 ';
      'bus51 ';'bus52 ';'bus53 ';'bus54 ';'bus55 ';
      'bus56 ';'bus57 ';'bus58 ';'bus59 ';'bus60 ';
      'bus61 ';'bus62 ';'bus63 ';'bus64 ';'bus65 ';
      'bus66 ';'bus67 ';'bus68 ';'bus69 ';'bus70 ';
      'bus71 ';'bus72 ';'bus73 ';'bus74 ';'bus75 ';
      'bus76 ';'bus77 ';'bus78 ';'bus79 ';'bus80 ';
      'bus81 ';'bus82 ';'bus83 ';'bus84 ';'bus85 ';
      'bus86 ';'bus87 ';'bus88 ';'bus89 ';'bus90 ';
      'bus91 ';'bus92 ';'bus93 ';'bus94 ';'bus95 ';
      'bus96 ';'bus97 ';'bus98 ';'bus99 ';'bus100 ';
      'bus101 ';'bus102 ';'bus103 ';'bus104 ';'bus105 ';
      'bus106 ';'bus107 ';'bus108 ';'bus109 ';'bus110 ';
      'bus111 ';'bus112 ';'bus113 ';'bus114 ';'bus115 ';
      'bus116 ';'bus117 ';'bus118 ';'bus119 ';'bus120 ';
      'bus121 ';'bus122 ';'bus123 ';'bus124 ';'bus125 ';
      'bus126 ';'bus127 ';'bus128 ';'bus129 ';'bus130 ';
      'bus131 ';'bus132 ';'bus133 ';'bus134 ';'bus135 ';
      'bus136 ';'bus137 ';'bus138 ';'bus139 ';'bus140 '};

%ZIP Data: 54
Pl.con = [...
   3      100        1       60 0.006463 0.005541  0.01375  0.01203   0.1074   0.1324  0  1
   6      100        1       60   0.6749  0.07013   0.3553  0.07984   0.2105   0.2358  0  1
   7      100        1       60   0.0417   0.3886   0.5651  0.04878  0.03772  0.01032  0  1
   9      100        1       60  0.04871   0.2094    0.267  0.03556  0.01712  0.04703  0  1
  11      100        1       60   0.4794   0.4565   0.6271  0.02434   0.0581   0.1543  0  1
  12      100        1       60    1.153   0.3132   0.3005  0.08317   0.2892    0.369  0  1
  14      100        1       60   0.6578   0.0592   0.2683  0.03266   0.1495   0.1556  0  1
  16      100        1       60   0.1208   0.7944   0.3774 0.003393    0.156   0.1118  0  1
  17      100        1       60   0.3658    0.335   0.2535  0.02849   0.0376  0.05064  0  1
  18      100        1       60   0.4987   0.4929   0.5522   0.1683   0.1906  0.05869  0  1
  19      100        1       60   0.5216  0.08054   0.5825  0.09609   0.0564 0.008531  0  1
  20      100        1       60   0.6623   0.5472   0.2436  0.04247  0.03433  0.06135  0  1
  30      100        1       60   0.3195   0.3752   0.2287 0.0006897 0.0007914 0.004254  0  1
  31      100        1       60    1.416    1.004   0.2961   0.4605  0.01781   0.5213  0  1
  34      100        1       60   0.4372    0.702    0.726     0.08   0.1835    0.406  0  1
  35      100        1       60    3.303  0.04469   0.8893   0.2216   0.5239   0.6914  0  1
  36      100        1       60  0.02284 0.001352  0.01084 0.001679  0.01113 0.006653  0  1
  41      100        1       60   0.1839    1.225    1.012  0.03848   0.2593   0.2211  0  1
  42      100        1       60   0.1858   0.6294   0.2388  0.01198  0.06664  0.02261  0  1
  45      100        1       60   0.3907   0.5715   0.6973  0.03638  0.08488    0.151  0  1
  47      100        1       60   0.1159    1.491   0.9901   0.1855   0.1405   0.4611  0  1
  49      100        1       60   0.2705   0.3666  0.07872  0.02649  0.06394  0.07134  0  1
  51      100        1       60    1.116    2.597    2.599   0.1267   0.4423   0.2945  0  1
  53      100        1       60   0.7398    1.213   0.4237  0.09929   0.2929   0.2514  0  1
  55      100        1       60   0.4497     1.49   0.6328   0.1267   0.1055   0.1349  0  1
  56      100        1       60   0.2743   0.1687  0.07195  0.08402  0.01265  0.05304  0  1
  58      100        1       60    0.112  0.06578  0.08806  0.05424  0.06652 0.005857  0  1
  59      100        1       60    3.372   0.4434   0.6587   0.1917   0.4815   0.9008  0  1
  61      100        1       60     0.62   0.5303   0.2755   0.0145  0.01451  0.04318  0  1
  64      100        1       60  0.06436   0.2089  0.06488 0.008612  0.01097  0.03953  0  1
  68      100        1       60   0.9143   0.7454   0.1377   0.1167   0.1052   0.1273  0  1
  71      100        1       60   0.8575   0.8633   0.9136   0.2405  0.05956  0.07628  0  1
  78      100        1       60    8.402    1.567     4.36    1.745   0.5118    2.042  0  1
  80      100        1       60   0.3441   0.2389    1.128  0.01209  0.02568  0.02333  0  1
  83      100        1       60   0.1816   0.1671   0.2932  0.01474   0.0793  0.03433  0  1
  86      100        1       60   0.1052   0.1702   0.1517   0.1037  0.08609   0.0237  0  1
  88      100        1       60  0.07629   0.5065   0.3952   0.2816   0.2003 0.007163  0  1
  89      100        1       60  0.09626   0.3617   0.3432   0.1283   0.1156    0.317  0  1
  90      100        1       60   0.3743   0.3071   0.1809  0.06234   0.2306  0.04452  0  1
  91      100        1       60   0.8473   0.6087    7.773   0.6672   0.9094     1.22  0  1
  92      100        1       60   0.0185  0.00556 0.008373  0.06832   0.6276   0.3419  0  1
  97      100        1       60   0.2178   0.3586    3.783   0.1049 0.005606    0.129  0  1
 101      100        1       60   0.3181    0.575    0.135  0.07897   0.1588   0.1441  0  1
 104      100        1       60 0.004816   0.3419  0.09651  0.08514  0.06485  0.04947  0  1
 110      100        1       60    2.322    1.769    2.065   0.6165   0.1842   0.2711  0  1
 111      100        1       60    0.395   0.2653   0.9793  0.05457  0.04616  0.08418  0  1
 117      100        1       60  0.09587   0.7421   0.7895  0.08172   0.1725   0.1405  0  1
 118      100        1       60    0.458   0.1644   0.5901  0.07667   0.1099   0.1859  0  1
 119      100        1       60    2.129   0.5486    1.274   0.2167   0.5363   0.3009  0  1
 123      100        1       60  0.05371   0.3385  0.01967  0.03204  0.01754  0.01579  0  1
 124      100        1       60   0.4013   0.1326   0.2715  0.08154  0.01692 0.008191  0  1
 125      100        1       60   0.5928    1.167   0.7668  0.01111  0.00809  0.02028  0  1
 136      100        1       60   0.3169   0.7983   0.4814     1.02  0.03054   0.2686  0  1
 138      100        1       60  0.04339   0.4078   0.4265   0.1189   0.3735  0.01822  0  1
];
